 xtb: 6.7.1 (edcfbbe)
          06072521263D

  7  6  0     0  0            999 V2000
   -0.6823   -3.8227   -0.5573 C   0  0  0  0  0  0  0  0  0  0  0  0
    0.1073   -3.4574    0.6285 C   0  0  0  0  0  0  0  0  0  0  0  0
   -0.0970   -3.7146   -1.4702 H   0  0  0  0  0  0  0  0  0  0  0  0
   -1.0078   -4.8722   -0.5135 H   0  0  0  0  0  0  0  0  0  0  0  0
   -1.5853   -3.2174   -0.6325 H   0  0  0  0  0  0  0  0  0  0  0  0
    1.1631   -3.6404    0.6571 H   0  0  0  0  0  0  0  0  0  0  0  0
   -0.3772   -3.1168    1.5219 H   0  0  0  0  0  0  0  0  0  0  0  0
  1  2  1  0  0  0  0
  1  3  1  0  0  0  0
  1  4  1  0  0  0  0
  1  5  1  0  0  0  0
  2  6  1  0  0  0  0
  2  7  1  0  0  0  0
M  END
