 xtb: 6.7.1 (edcfbbe)
          06072521263D

  8  7  0     0  0            999 V2000
    0.8450   -3.7177   -0.4169 C   0  0  0  0  0  0  0  0  0  0  0  0
    1.5730   -2.5372    0.2230 C   0  0  0  0  0  0  0  0  0  0  0  0
    1.1339   -1.3326   -0.0351 O   0  0  0  0  0  0  0  0  0  0  0  0
    0.8710   -3.6252   -1.5005 H   0  0  0  0  0  0  0  0  0  0  0  0
    1.3078   -4.6564   -0.1250 H   0  0  0  0  0  0  0  0  0  0  0  0
   -0.1985   -3.7199   -0.1092 H   0  0  0  0  0  0  0  0  0  0  0  0
    2.6685   -2.5938   -0.0167 H   0  0  0  0  0  0  0  0  0  0  0  0
    1.6259   -2.6837    1.3351 H   0  0  0  0  0  0  0  0  0  0  0  0
  1  2  1  0  0  0  0
  2  3  4  0  0  0  0
  1  4  1  0  0  0  0
  1  5  1  0  0  0  0
  1  6  1  0  0  0  0
  2  7  1  0  0  0  0
  2  8  1  0  0  0  0
M  END
