11
Frame 0
 C         -1.301402140412        0.560086005299       -0.348477793781
 C         -0.335525659226       -0.453672726187        0.612269916997
 C          1.876436689857       -0.244592192116       -0.270995459516
 O          0.604342930933       -0.949102618513       -0.177690163162
 O          2.000603610347        0.809436465256        0.212149327857
 H         -1.645955184186       -0.041876942081       -1.180793842781
 H         -2.082173734105        0.830927459219        0.356199488285
 H         -0.641295047174        1.376828465399       -0.619959899197
 H         -1.059816310027       -1.228934671837        0.866287515567
 H          0.024351456100        0.208062722927        1.399403867535
 H          2.560433387892       -0.867161967366       -0.848392957805
11
Frame 1
 C         -1.362625845278        0.559629429564       -0.333482013389
 C         -0.367204285406       -0.434828529343        0.579404747277
 C          2.011986143115       -0.247776020808       -0.279530288510
 O          0.577599633748       -0.915677193256       -0.207305064976
 O          2.166136908222        0.797608398481        0.202593818774
 H         -1.731538619590       -0.032748940041       -1.163325393397
 H         -2.151462282276        0.813604684906        0.369217012652
 H         -0.738542870381        1.403922057537       -0.608937511167
 H         -1.068733134289       -1.226456993145        0.863247568225
 H         -0.011264200009        0.213924613960        1.384322958004
 H          2.675648552145       -0.931201507855       -0.806205833493
11
Frame 2
 C         -1.443356263460        0.559800610920       -0.316190870764
 C         -0.402372939976       -0.404593910003        0.538997190847
 C          2.180523180480       -0.267034939397       -0.276489064802
 O          0.549947732017       -0.853159394410       -0.251163425839
 O          2.371076435038        0.773320585579        0.192034710362
 H         -1.833162618048       -0.025687415042       -1.142479380008
 H         -2.236909113441        0.785998464918        0.391402834121
 H         -0.869596824355        1.438221472177       -0.597259104293
 H         -1.067224021980       -1.222593589621        0.851449823945
 H         -0.057341348842        0.228905757430        1.365789210322
 H          2.808415782568       -1.013177642551       -0.756091923890
11
Frame 3
 C         -1.544541428598        0.560227310799       -0.294797037965
 C         -0.445136536788       -0.360774408376        0.494348111776
 C          2.386110790156       -0.307101389037       -0.260423445713
 O          0.524029425404       -0.748567963739       -0.301010027211
 O          2.620181319831        0.738938204617        0.161884110640
 H         -1.944117611337       -0.019924215358       -1.121311118415
 H         -2.340990784546        0.744578151119        0.422305813732
 H         -1.035734389274        1.477985252589       -0.578252262546
 H         -1.055993988109       -1.219329941641        0.822993458155
 H         -0.123915301456        0.251534335278        1.351356248289
 H          2.960108504717       -1.117565336250       -0.697093850743
11
Frame 4
 C         -1.658530439401        0.559147351041       -0.272802354794
 C         -0.505883520779       -0.303656052901        0.464894833694
 C          2.630950837120       -0.363705815364       -0.254027790715
 O          0.500014420155       -0.601926891792       -0.317062810587
 O          2.915520407511        0.689116687956        0.102633715136
 H         -2.038915631024       -0.014826702769       -1.113698560917
 H         -2.469153654609        0.685589957788        0.441575055211
 H         -1.222842060902        1.518428304327       -0.543483243008
 H         -1.051186936978       -1.213313289404        0.785755895670
 H         -0.234184074896        0.278662830250        1.364044432054
 H          3.134210653805       -1.233516379131       -0.657829171743
11
Frame 5
 C         -1.782352874079        0.556324154989       -0.257374906631
 C         -0.600075880640       -0.231063525034        0.476919098441
 C          2.935712041977       -0.441330122071       -0.294415338048
 O          0.472356247080       -0.411166955704       -0.244433891905
 O          3.253325477803        0.612499888336        0.013123436678
 H         -2.092833506711       -0.006304915287       -1.134962082417
 H         -2.633319893168        0.605206885754        0.419176547253
 H         -1.426990165234        1.559111308082       -0.488349564823
 H         -1.070732116055       -1.198974067530        0.757743128374
 H         -0.422606488757        0.311919780026        1.427794011098
 H          3.367517157786       -1.356222431560       -0.675220438020
11
Frame 6
 C         -1.874307388903        0.573049045960       -0.251998479238
 C         -0.763046424021       -0.221318591241        0.543544087977
 C          3.319057466623       -0.477096496082       -0.415795773552
 O          0.380842689787       -0.371379773836       -0.059703057726
 O          3.532364100045        0.605426162971       -0.136100114611
 H         -2.126301701093        0.029143776202       -1.160637997267
 H         -2.775761909642        0.635991604479        0.355015510132
 H         -1.506073432473        1.577839837184       -0.456982406684
 H         -1.237412920239       -1.205527076116        0.773354183115
 H         -0.674398395795        0.281385031346        1.533159285315
 H          3.725037915710       -1.427513520867       -0.723855237462
11
Frame 7
 C         -2.087084972357        0.598598392476       -0.232665472084
 C         -1.031504935919       -0.172396643089        0.624118816032
 C          4.036562399038       -0.585910691063       -0.550364603979
 O          0.166481483656       -0.275391470366        0.133253287001
 O          4.012178135006        0.505617249372       -0.240871117999
 H         -2.262416757873        0.060339449263       -1.163510783232
 H         -3.031410330307        0.660973996508        0.305834712799
 H         -1.721419906606        1.607251229170       -0.428336029665
 H         -1.480488160930       -1.180420349089        0.818818270050
 H         -1.031073717874        0.306704081225        1.633959952439
 H          4.430176764165       -1.525365244407       -0.900237031362
11
Frame 8
 C         -2.564020381082        0.674803304406       -0.174622665093
 C         -1.661325067835       -0.155599388036        0.766068942330
 C          5.630657926668       -0.675992704842       -0.835461173104
 O         -0.448898381051       -0.378093341747        0.369011644693
 O          5.376098366594        0.373426558377       -0.514737866122
 H         -2.673747765869        0.151544833800       -1.125055650486
 H         -3.542102349259        0.825641468131        0.279750490809
 H         -2.092332418496        1.639623330950       -0.370773869721
 H         -2.195062486777       -1.123731475781        0.971730338180
 H         -1.661838298566        0.355482221304        1.764739832608
 H          5.832570855673       -1.687104806561       -1.130650024095
