11
Frame 0
 C         -1.301402140412        0.560086005299       -0.348477793781
 C         -0.335525659226       -0.453672726187        0.612269916997
 C          1.876436689857       -0.244592192116       -0.270995459516
 O          0.604342930933       -0.949102618513       -0.177690163162
 O          2.000603610347        0.809436465256        0.212149327857
 H         -1.645955184186       -0.041876942081       -1.180793842781
 H         -2.082173734105        0.830927459219        0.356199488285
 H         -0.641295047174        1.376828465399       -0.619959899197
 H         -1.059816310027       -1.228934671837        0.866287515567
 H          0.024351456100        0.208062722927        1.399403867535
 H          2.560433387892       -0.867161967366       -0.848392957805
11
Frame 1
 C         -1.313478790210        0.560211692431       -0.418262995760
 C         -0.376878996083       -0.380249903148        0.766623327794
 C          2.045880502067       -0.299474740699       -0.344174137615
 O          0.367816381140       -0.818059588036       -0.238250057056
 O          2.289051891416        0.704373983128        0.199025740019
 H         -1.572662228670        0.137322953182       -1.378747125101
 H         -2.233102222996        0.345716593042        0.246834865949
 H         -0.774953839477        1.499048149634       -0.447573796113
 H         -1.078186021417       -1.148887994725        1.087197811824
 H         -0.016941459578        0.367364531220        1.466211946159
 H          2.663454783808       -0.967365676028       -0.938885580100
11
Frame 2
 C         -1.350854232826        0.594926340327       -0.458498781062
 C         -0.466941344632       -0.278641551794        0.945070463030
 C          2.294592219050       -0.427035542737       -0.458546786379
 O          0.102144304901       -0.708706577807       -0.174627528105
 O          2.571047522943        0.538227283194        0.138794751504
 H         -1.505085428846        0.382191295849       -1.505396949619
 H         -2.184418621138       -0.194610558302       -0.013595507256
 H         -1.038373581420        1.609457020949       -0.254918262388
 H         -1.138771633837       -1.039274520098        1.334079450326
 H         -0.180785956430        0.551132947731        1.577683203001
 H          2.897446752234       -1.027666137312       -1.130044053052
11
Frame 3
 C         -1.495025307538        0.657952450617       -0.459294293512
 C         -0.659565623644       -0.234666058735        1.085582913498
 C          2.806886009349       -0.535772139801       -0.643940043540
 O         -0.284443777145       -0.655467799988       -0.120536801918
 O          2.940405739188        0.411267711051        0.026109412979
 H         -1.684758492133        0.562724698453       -1.516075143039
 H         -2.135917150162       -0.455457935988       -0.166756211570
 H         -1.262078634519        1.667034290454       -0.155760240835
 H         -1.322401481431       -0.957281415257        1.548751389097
 H         -0.395813922068        0.639282055335        1.661737963455
 H          3.492712640102       -1.099615856140       -1.259818944614
11
Frame 4
 C         -2.423678956469        0.835209528758       -0.282067982393
 C         -1.701290955183       -0.130303640454        1.393631558096
 C          5.456957578596       -0.894419628350       -1.265370828662
 O         -1.450242859539       -0.495246085885        0.134642496633
 O          5.287818534585        0.087352971562       -0.659369104228
 H         -2.598354389384        0.772551576100       -1.342720839590
 H         -2.977206003377       -0.452131767103       -0.079039087727
 H         -2.087520501640        1.811607132738        0.026586498071
 H         -2.343138950199       -0.847098221861        1.888502677458
 H         -1.409358231501        0.752785983905        1.937552580412
 H          6.246014734111       -1.440307849411       -1.752347968069
11
Frame 5
 C         -2.433668119628        0.893706663844       -0.318666006421
 C         -1.830238793738       -0.140423287063        1.486439570369
 C          5.668259437022       -0.907781881751       -1.347646695036
 O         -1.708237277820       -0.436987303489        0.187299631721
 O          5.156649754444       -0.038201422350       -0.766717907461
 H         -2.601516020149        0.823065862763       -1.378831958975
 H         -3.006701431759       -0.508528025471       -0.106036363055
 H         -1.969337534486        1.821575963357       -0.032532704058
 H         -2.394352099883       -0.885633591800        2.026163469212
 H         -1.444693523351        0.734138749584        1.980112097285
 H          6.563835609347       -1.354931727624       -1.729583133581
11
Frame 6
 C         -3.357699935259        1.070678804566       -0.163309541393
 C         -2.839664149410       -0.055394106491        1.753571398819
 C          8.388744647248       -1.232148136632       -1.908925787928
 O         -2.945444193113       -0.250472247873        0.429967596164
 O          7.575163061164       -0.554581682544       -1.430585854016
 H         -3.598620111876        0.982944798053       -1.206733926306
 H         -4.091137438150       -0.388135375621        0.176906887905
 H         -2.735556762312        1.906353537327        0.100346860812
 H         -3.431971753002       -0.734892555374        2.342582035557
 H         -2.312112402554        0.776324009001        2.181788657019
 H          9.348299037264       -1.520677044412       -2.275608326634
11
Frame 7
 C         -3.313446001682        1.118302793008       -0.229612755656
 C         -2.879598629260       -0.090346749345        1.804202194319
 C          8.497980168871       -1.181882354375       -1.919123347697
 O         -3.199087120123       -0.103079213839        0.494956823556
 O          7.476887157661       -0.810383821683       -1.516534033205
 H         -3.617098036940        1.014161300338       -1.253553536472
 H         -4.172632732933       -0.439482063154        0.239853187021
 H         -2.571126164225        1.854936398112        0.010676056406
 H         -3.489859661771       -0.719923983862        2.425270473176
 H         -2.235440758640        0.682331700575        2.175508166068
 H          9.503421779043       -1.324634005774       -2.231643227516
11
Frame 8
 C         -3.354940746721        1.168782209168       -0.269701486059
 C         -2.963856404731       -0.134495800492        1.794443500399
 C          8.766226782555       -1.127378857707       -1.944398865013
 O         -3.594295208104        0.160766735004        0.619220570762
 O          7.638406462721       -1.079631276228       -1.697213438721
 H         -3.724009927028        1.018189568663       -1.264909111683
 H         -4.332033744555       -0.422863395682        0.393870077670
 H         -2.502497707761        1.781428875736       -0.058814607191
 H         -3.514869696205       -0.740090740214        2.486262148751
 H         -2.216894918530        0.565295722082        2.108869066666
 H          9.798765108359       -1.190003040329       -2.167627855581
