11
Frame 0
 C         -1.301402140412        0.560086005299       -0.348477793781
 C         -0.335525659226       -0.453672726187        0.612269916997
 C          1.876436689857       -0.244592192116       -0.270995459516
 O          0.604342930933       -0.949102618513       -0.177690163162
 O          2.000603610347        0.809436465256        0.212149327857
 H         -1.645955184186       -0.041876942081       -1.180793842781
 H         -2.082173734105        0.830927459219        0.356199488285
 H         -0.641295047174        1.376828465399       -0.619959899197
 H         -1.059816310027       -1.228934671837        0.866287515567
 H          0.024351456100        0.208062722927        1.399403867535
 H          2.560433387892       -0.867161967366       -0.848392957805
11
Frame 1
 C         -1.397703556493        0.564927359170       -0.403440490576
 C         -0.321662016801       -0.349644945424        0.459680414040
 C          1.912879306568       -0.367673109937       -0.221713474095
 O          0.578672128434       -0.869231797564       -0.342811305849
 O          2.033379832694        0.572867376814        0.661801113589
 H         -1.778636298575       -0.047444999637       -1.213961795590
 H         -2.150073228730        0.803521309541        0.343664528386
 H         -0.817617342515        1.425544342431       -0.724942583316
 H         -0.815826807314       -1.244276722289        1.084953966175
 H          0.180465995430        0.359281495277        1.293693974557
 H          2.576121987303       -0.847870308384       -0.936924347322
11
Frame 2
 C         -1.478200867728        0.574961574469       -0.460734204472
 C         -0.327529765152       -0.261450345516        0.307631561671
 C          1.904966696164       -0.484160691859       -0.210335796311
 O          0.562509497751       -0.775328845388       -0.489774794148
 O          1.949611438752        0.248990175736        1.037149376524
 H         -1.876511626665       -0.037947430671       -1.264641254889
 H         -2.215969338125        0.766537895515        0.314820774085
 H         -0.978504978846        1.471598228794       -0.821722699734
 H         -0.410994213869       -1.138870536812        1.303617221098
 H          0.282280251612        0.450802287149        1.268818438507
 H          2.588342906106       -0.815132311415       -0.984828622331
11
Frame 3
 C         -1.536048243238        0.569829793130       -0.498599217984
 C         -0.349643421527       -0.220365696448        0.194641836813
 C          1.877959951523       -0.556797353936       -0.234914453984
 O          0.560086472736       -0.667194677185       -0.599515907567
 O          1.778859265980       -0.069908659910        1.316578492999
 H         -1.935211791429       -0.028149354146       -1.315475029954
 H         -2.270317079945        0.717881049240        0.290342790941
 H         -1.093964414024        1.490559722320       -0.878332888943
 H         -0.035095772376       -0.972291416230        1.451155791404
 H          0.402664400843        0.540300015016        1.275682683669
 H          2.600710631458       -0.803863421852       -1.001564097396
11
Frame 4
 C         -1.567312942366        0.563092233688       -0.532942709550
 C         -0.371819259495       -0.194765659317        0.111304626420
 C          1.859862296698       -0.547648704928       -0.310907512686
 O          0.565547432989       -0.587746214055       -0.653300133735
 O          1.644888910228       -0.212862696177        1.494420727063
 H         -1.965507778954       -0.022575992442       -1.361419428846
 H         -2.305772917770        0.687182468597        0.256853412295
 H         -1.166499269866        1.495517286923       -0.933751848922
 H          0.164308182567       -0.908285397250        1.570632295406
 H          0.543635880311        0.578625303948        1.397357537928
 H          2.598669465659       -0.850532628986       -1.038246965373
11
Frame 5
 C         -1.602776934124        0.566722068275       -0.594646770342
 C         -0.376983572725       -0.101429299649        0.020624611355
 C          1.853112638632       -0.496629223214       -0.432003241378
 O          0.574433524096       -0.494014369091       -0.695739238981
 O          1.562355953996       -0.317044182476        1.667603750627
 H         -2.001334771878       -0.059092640940       -1.395342494730
 H         -2.339239294988        0.681918069776        0.199147825493
 H         -1.273821783398        1.498014255577       -1.061918574134
 H          0.311734295692       -0.928631984548        1.719261673471
 H          0.716302571003        0.584395248108        1.673643992314
 H          2.576217373693       -0.934207941819       -1.100631533695
11
Frame 6
 C         -1.631484411342        0.566073124230       -0.682905005608
 C         -0.421601600327       -0.120746788297       -0.132249305378
 C          1.822884925612       -0.513008411795       -0.624976302076
 O          0.561683348152       -0.490158930294       -0.780025867792
 O          1.486338028603       -0.272044837889        1.848460264284
 H         -2.017340739553        0.014542755103       -1.544289720552
 H         -2.390989018098        0.595646995994        0.097947981161
 H         -1.335407832514        1.546962037358       -1.066476566881
 H          0.504668376817       -0.960736737441        2.038230958346
 H          0.882583591516        0.653939484765        2.092820850255
 H          2.538665331133       -1.020468691734       -1.246537285759
11
Frame 7
 C         -1.678325040078        0.565441168815       -0.839810605033
 C         -0.443690280028       -0.124332776004       -0.460259934313
 C          1.833043317888       -0.492705326043       -0.948837275148
 O          0.599036207864       -0.414858455843       -1.003436397537
 O          1.345532999171       -0.242417787122        2.214415761428
 H         -2.175030889255        0.033248940159       -1.657016980177
 H         -2.349786151038        0.589460005485        0.019583921717
 H         -1.451373582324        1.574342702944       -1.200734954969
 H          0.735864568878       -1.004277594033        2.667425919908
 H          1.078981922574        0.637477176558        2.708897213280
 H          2.505746926349       -1.121378054916       -1.500226669155
11
Frame 8
 C         -1.671150934916        0.534693258134       -1.117860647013
 C         -0.406281978251       -0.141135091006       -1.098784811860
 C          1.795559953500       -0.487582090634       -1.932493281778
 O          0.636348378919       -0.350255711505       -1.632825634957
 O          1.140007585912       -0.152053501466        3.499189509314
 H         -2.356088490987        0.042563152040       -1.817327476344
 H         -2.138420755886        0.505311682521       -0.131495945511
 H         -1.557038534901        1.583455706481       -1.417111766204
 H          0.936501967569       -0.908828979553        4.062430801919
 H          1.295936259751        0.611114476197        4.071144872864
 H          2.324626549292       -1.237282901208       -2.484865620429
