 xtb: 6.7.1 (edcfbbe)
          06072521263D

  7  6  0     0  0            999 V2000
    1.9144   -0.1607    0.1947 C   0  0  0  0  0  0  0  0  0  0  0  0
    0.4009    1.7289   -0.0454 C   0  0  0  0  0  0  0  0  0  0  0  0
    1.8199    1.0224   -0.0879 O   0  0  0  0  0  0  0  0  0  0  0  0
   -0.5023    1.0833    0.2501 O   0  0  0  0  0  0  0  0  0  0  0  0
    2.9024   -0.6361    0.1617 H   0  0  0  0  0  0  0  0  0  0  0  0
    1.0407   -0.7691    0.4828 H   0  0  0  0  0  0  0  0  0  0  0  0
    0.5976    2.7617   -0.3284 H   0  0  0  0  0  0  0  0  0  0  0  0
  1  3  2  0  0  0  0
  2  3  1  0  0  0  0
  2  4  2  0  0  0  0
  1  5  1  0  0  0  0
  1  6  1  0  0  0  0
  2  7  1  0  0  0  0
M  CHG  1   1   1
M  END
