11

 C      -1.792351       0.616506        -0.368606
 C      -0.822177       -0.432000       0.609926
 C      1.414468        -0.173364       -0.277305
 O      0.097826        -0.945135       -0.206159
 O      1.520867        0.863735        0.246524
 H      -2.147323       -0.006165       -1.185786
 H      -2.556366       0.903213        0.353772
 H      -1.116577       1.418098        -0.657147
 H      -1.561638       -1.186655       0.884179
 H      -0.446673       0.254018        1.373775
 H      2.079390        -0.798158       -0.875809

