 xtb: 6.7.1 (edcfbbe)
          06072521263D

  8  8  0     0  0            999 V2000
    0.6757   -2.1588   -0.1827 C   0  0  0  0  0  0  0  0  0  0  0  0
    1.1177   -0.9449    0.4240 C   0  0  0  0  0  0  0  0  0  0  0  0
    1.6075    1.3258   -0.1497 C   0  0  0  0  0  0  0  0  0  0  0  0
    1.3881    0.1826    0.1504 O   0  0  0  0  0  0  0  0  0  0  0  0
    1.1473   -3.0314    0.2703 H   0  0  0  0  0  0  0  0  0  0  0  0
   -0.4109   -2.2715   -0.0790 H   0  0  0  0  0  0  0  0  0  0  0  0
    0.8900   -2.1136   -1.2618 H   0  0  0  0  0  0  0  0  0  0  0  0
    2.5192    1.8761    0.0087 H   0  0  0  0  0  0  0  0  0  0  0  0
  1  2  1  0  0  0  0
  2  3  1  0  0  0  0
  2  4  2  0  0  0  0
  3  4  2  0  0  0  0
  1  5  1  0  0  0  0
  1  6  1  0  0  0  0
  1  7  1  0  0  0  0
  3  8  1  0  0  0  0
M  CHG  1   1   1
M  END
