 xtb: 6.7.1 (edcfbbe)
          06072521263D

  4  3  0     0  0            999 V2000
   -0.8897    3.2059    0.0177 C   0  0  0  0  0  0  0  0  0  0  0  0
   -2.0037    2.7818    0.0382 O   0  0  0  0  0  0  0  0  0  0  0  0
   -0.3154    3.4219    0.9344 H   0  0  0  0  0  0  0  0  0  0  0  0
   -0.3458    3.4121   -0.9197 H   0  0  0  0  0  0  0  0  0  0  0  0
  1  2  2  0  0  0  0
  1  3  1  0  0  0  0
  1  4  1  0  0  0  0
M  END
