11
Frame 0
 C         -1.301402140412        0.560086005299       -0.348477793781
 C         -0.335525659226       -0.453672726187        0.612269916997
 C          1.876436689857       -0.244592192116       -0.270995459516
 O          0.604342930933       -0.949102618513       -0.177690163162
 O          2.000603610347        0.809436465256        0.212149327857
 H         -1.645955184186       -0.041876942081       -1.180793842781
 H         -2.082173734105        0.830927459219        0.356199488285
 H         -0.641295047174        1.376828465399       -0.619959899197
 H         -1.059816310027       -1.228934671837        0.866287515567
 H          0.024351456100        0.208062722927        1.399403867535
 H          2.560433387892       -0.867161967366       -0.848392957805
11
Frame 1
 C         -1.364740515687        0.566338621802       -0.333201607216
 C         -0.389874030486       -0.410353763637        0.586160443470
 C          1.973647925496       -0.294899320659       -0.274042278490
 O          0.714870169250       -0.950811970312       -0.210938214360
 O          2.142519640381        0.767786518534        0.186969240493
 H         -1.740149382434       -0.024453496510       -1.161977209195
 H         -2.169070538894        0.817305172949        0.357046290985
 H         -0.754128727876        1.426727140412       -0.589709906608
 H         -1.072749405452       -1.211136222700        0.871544843310
 H         -0.041303387522        0.225850056565        1.398632185354
 H          2.700978253225       -0.912352736443       -0.830483787743
11
Frame 2
 C         -1.428323773886        0.570447180679       -0.326630976738
 C         -0.453797547055       -0.366465488600        0.565374282235
 C          2.088984239126       -0.354169581099       -0.258489373161
 O          0.848064344112       -0.969742315309       -0.219654591068
 O          2.302858715606        0.714696240557        0.180662400718
 H         -1.836017174405       -0.014541363810       -1.146028940388
 H         -2.252929064883        0.814176400911        0.347188708699
 H         -0.869138191784        1.470982520718       -0.566720979385
 H         -1.101507465117       -1.181057146365        0.889681758215
 H         -0.127524343648        0.241221064174        1.407872731332
 H          2.829330261932       -0.925547511856       -0.873255020458
11
Frame 3
 C         -1.498491481752        0.581571269740       -0.314781007021
 C         -0.532633540932       -0.330829057282        0.545604836841
 C          2.216638046777       -0.400670228958       -0.264072489425
 O          1.009082192722       -1.006508769354       -0.217266412305
 O          2.460998350240        0.685156123905        0.127045842268
 H         -1.940831231046        0.009833311285       -1.127410708695
 H         -2.337514531620        0.824199026388        0.346769774405
 H         -0.983508395963        1.514311139843       -0.535130674607
 H         -1.151316304314       -1.156612384504        0.896521386996
 H         -0.230904390931        0.236463623866        1.424224027889
 H          2.988481286819       -0.956914054929       -0.881504576344
11
Frame 4
 C         -1.584536964022        0.600489651422       -0.296563222872
 C         -0.635288807815       -0.297702572057        0.532826375687
 C          2.367311791276       -0.440281220830       -0.288543168113
 O          1.208700152370       -1.065739483358       -0.211707206015
 O          2.628459628073        0.665984528153        0.043100266922
 H         -2.059497828933        0.045760397137       -1.104507292168
 H         -2.433921878644        0.848360438119        0.355066514993
 H         -1.103513274181        1.556539267138       -0.498894786601
 H         -1.226167323097       -1.138838573145        0.894317170859
 H         -0.348607095967        0.225770357034        1.442721214983
 H          3.187061600940       -1.000342789613       -0.867815867675
11
Frame 5
 C         -1.690008880461        0.622674872462       -0.273220982726
 C         -0.776752121385       -0.261494034814        0.548594886607
 C          2.551595376817       -0.495767823699       -0.315885684432
 O          1.462889327742       -1.180804232005       -0.266798374110
 O          2.784524326583        0.627359330687       -0.004914480369
 H         -2.183398475799        0.078919940621       -1.079592814765
 H         -2.551695021889        0.894947074181        0.357395605407
 H         -1.223316046281        1.587462792962       -0.474388217936
 H         -1.344558419292       -1.109741908214        0.928206086944
 H         -0.463946699976        0.240986030431        1.461041108268
 H          3.434666633940       -1.004542042612       -0.880437132888
11
Frame 6
 C         -1.825599122918        0.660026319438       -0.235429459983
 C         -1.002499518968       -0.191642173619        0.651128801213
 C          2.793746440400       -0.577521455202       -0.421383600491
 O          1.876423515337       -1.439502910838       -0.408734034741
 O          2.898718528363        0.542174335498       -0.019586364325
 H         -2.279500717299        0.107885001246       -1.061133628101
 H         -2.727628691473        0.973294510017        0.320497584035
 H         -1.346353130204        1.617768436950       -0.447474637256
 H         -1.540600646694       -1.067725171891        1.006228955796
 H         -0.645360626362        0.316047067114        1.542721799533
 H          3.798653969819       -0.940803958713       -0.926835415681
11
Frame 7
 C         -2.167436660876        0.750389261664       -0.149618250328
 C         -1.535032396488       -0.038644285830        0.882739609086
 C          3.444098640558       -0.794623344836       -0.530473923492
 O          2.796978530289       -1.821088089866       -0.727330229199
 O          3.269328294614        0.324728960272       -0.139170760540
 H         -2.502223784294        0.160665269196       -1.007653774314
 H         -3.127487041065        1.128017497180        0.254017113413
 H         -1.619152701308        1.666778998516       -0.382885725573
 H         -1.992447665234       -0.989831011103        1.137387497393
 H         -1.083774193703        0.477140826159        1.723137121598
 H          4.517148977506       -0.863534081351       -1.060148678043
11
Frame 8
 C         -2.365446603239        0.807477505390       -0.085465442494
 C         -1.966708171210        0.094068286503        1.067284317767
 C          3.793082169368       -0.923000818223       -0.686484414076
 O          3.484277818977       -2.054138722784       -0.914830646988
 O          3.412249028150        0.109359077554       -0.207295418283
 H         -2.581509688325        0.170862232020       -0.949990549070
 H         -3.347415261624        1.267595949273        0.154585506571
 H         -1.714083375293        1.652510224351       -0.329078150187
 H         -2.274324256803       -0.931894364616        1.235511706321
 H         -1.351323832426        0.551556439774        1.832225242442
 H          4.911202172425       -0.744395809240       -1.116462152004
