11
Frame 0
 C         -1.301402140412        0.560086005299       -0.348477793781
 C         -0.335525659226       -0.453672726187        0.612269916997
 C          1.876436689857       -0.244592192116       -0.270995459516
 O          0.604342930933       -0.949102618513       -0.177690163162
 O          2.000603610347        0.809436465256        0.212149327857
 H         -1.645955184186       -0.041876942081       -1.180793842781
 H         -2.082173734105        0.830927459219        0.356199488285
 H         -0.641295047174        1.376828465399       -0.619959899197
 H         -1.059816310027       -1.228934671837        0.866287515567
 H          0.024351456100        0.208062722927        1.399403867535
 H          2.560433387892       -0.867161967366       -0.848392957805
11
Frame 1
 C         -1.225033674830        0.556092413253       -0.321507312627
 C         -0.386327045739       -0.514058546120        0.652752881512
 C          1.798079253370       -0.208062702445       -0.281113977577
 O          0.630818363768       -1.010193915142       -0.072798911720
 O          1.755383143376        0.948235832193       -0.048543611207
 H         -1.585146091851       -0.008649074934       -1.173280058662
 H         -2.000831339479        0.923962386079        0.342942320867
 H         -0.355835301585        1.285849274264       -0.573263868281
 H         -1.127804163270       -1.294310863797        0.827169988527
 H         -0.042083410760        0.111628895157        1.476236162202
 H          2.538780266999       -0.790493698507       -0.828593613034
11
Frame 2
 C         -1.192971333283        0.553029865127       -0.290797071202
 C         -0.420759336088       -0.538311696592        0.666916059619
 C          1.759390582834       -0.185511067887       -0.268649513067
 O          0.660504363476       -1.023066344968       -0.009492928238
 O          1.611986670943        0.998515701838       -0.218574520523
 H         -1.574923535207        0.029020433921       -1.158877631387
 H         -1.955564224162        0.982368915806        0.350804195370
 H         -0.174741013582        1.213525702169       -0.583295379004
 H         -1.149034944438       -1.340475761662        0.787916590372
 H         -0.096633615752        0.046027070657        1.528362154559
 H          2.532746385258       -0.735122818408       -0.804311956500
11
Frame 3
 C         -1.180735205098        0.548715722199       -0.257862660161
 C         -0.446560507496       -0.545690683231        0.675819276183
 C          1.731887831762       -0.171945063792       -0.262060126850
 O          0.685532767549       -1.020916075434        0.036003819113
 O          1.524204095536        1.015548202880       -0.338580852072
 H         -1.559024976259        0.070032868246       -1.153312155423
 H         -1.947465620276        1.007822899291        0.356972748081
 H         -0.041450159871        1.170522024911       -0.605054124875
 H         -1.151398476141       -1.372288939560        0.766397149752
 H         -0.141551481344       -0.003337860783        1.571000131253
 H          2.526561731637       -0.698463094728       -0.789323205000
11
Frame 4
 C         -1.183057518850        0.536575404099       -0.228216166568
 C         -0.468522389178       -0.546118095887        0.682687680788
 C          1.707830454243       -0.165589205579       -0.263406032702
 O          0.705710705802       -1.013362586418        0.069788548549
 O          1.467910565100        1.020336199460       -0.428160279121
 H         -1.538554344885        0.103275926899       -1.155555920170
 H         -1.954408948361        1.022111314805        0.359069916613
 H          0.068838014217        1.157618500391       -0.620398584933
 H         -1.143880319447       -1.398267443046        0.760254754306
 H         -0.181407743923       -0.042266322432        1.605629344368
 H          2.519541525283       -0.674313692290       -0.781693261131
11
Frame 5
 C         -1.199595552055        0.516375499679       -0.201056975526
 C         -0.488692397744       -0.542686505453        0.688369767899
 C          1.682322781330       -0.166904936796       -0.277322795589
 O          0.718613987141       -1.004351390212        0.089406862048
 O          1.433460244588        1.019961015392       -0.502885826920
 H         -1.514858692243        0.130977743029       -1.163412482085
 H         -1.974695508976        1.026755616762        0.358544101212
 H          0.169186855835        1.174784633174       -0.623682087307
 H         -1.130059533010       -1.420588572628        0.768985679748
 H         -0.214011206797       -0.072893703997        1.632470591708
 H          2.518329021930       -0.661429398950       -0.769416835189
11
Frame 6
 C         -1.230169233392        0.484635070103       -0.179582630142
 C         -0.508470927138       -0.536274646882        0.694185975050
 C          1.650017896426       -0.178202759653       -0.311824115821
 O          0.722196951889       -0.997097632169        0.093954918497
 O          1.416273368245        1.016794699623       -0.570239744341
 H         -1.486011653343        0.150924571459       -1.178150155174
 H         -2.009835560205        1.019051930200        0.349225531974
 H          0.272545601991        1.226875422960       -0.592009213783
 H         -1.112070043600       -1.438610638479        0.796733590936
 H         -0.236220350134       -0.089742463664        1.649776798893
 H          2.521743949261       -0.658353553497       -0.752070956088
11
Frame 7
 C         -1.273928026326        0.431548353275       -0.173641427938
 C         -0.530196763091       -0.529661321249        0.699194093228
 C          1.609039056047       -0.195389058655       -0.365409049070
 O          0.722542893165       -0.989985856110        0.095420054179
 O          1.414104465519        1.019258366486       -0.613728403007
 H         -1.468820118226        0.142401437967       -1.199389166765
 H         -2.034973841679        1.018931977971        0.323950372322
 H          0.394953801914        1.306041380644       -0.511269882465
 H         -1.088032813876       -1.456236538856        0.840663201510
 H         -0.258499892535       -0.088185619284        1.656820027328
 H          2.513811239087       -0.658723122187       -0.752609819321
11
Frame 8
 C         -1.336185291888        0.348749695597       -0.182029089546
 C         -0.555648012651       -0.525707986114        0.701905903878
 C          1.553914978494       -0.209908710788       -0.436823293775
 O          0.720585317203       -0.979096774937        0.092651369824
 O          1.429624808363        1.036840543312       -0.614552745569
 H         -1.480138685016        0.085825802114       -1.223020379008
 H         -2.025651965909        1.046376840494        0.274475658058
 H          0.549643655756        1.398127392768       -0.385494406955
 H         -1.055997546290       -1.475008732725        0.899519648563
 H         -0.285043401126       -0.070488274962        1.652852112399
 H          2.484896143063       -0.655709794759       -0.779484777870
