 xtb: 6.7.1 (edcfbbe)
          06072521263D

  8  7  0     0  0            999 V2000
   -2.1863   -3.2027   -0.0904 C   0  0  0  0  0  0  0  0  0  0  0  0
   -0.8504   -2.6777   -0.0332 C   0  0  0  0  0  0  0  0  0  0  0  0
   -0.5128   -1.4939    0.1739 O   0  0  0  0  0  0  0  0  0  0  0  0
   -2.3371   -3.7129   -1.0510 H   0  0  0  0  0  0  0  0  0  0  0  0
   -2.2868   -4.0280    0.6266 H   0  0  0  0  0  0  0  0  0  0  0  0
   -2.9696   -2.4628    0.0714 H   0  0  0  0  0  0  0  0  0  0  0  0
   -0.0046   -3.3581   -0.1806 H   0  0  0  0  0  0  0  0  0  0  0  0
   -1.2179   -0.8213    0.3178 H   0  0  0  0  0  0  0  0  0  0  0  0
  1  2  4  0  0  0  0
  2  3  2  0  0  0  0
  1  4  1  0  0  0  0
  1  5  1  0  0  0  0
  1  6  1  0  0  0  0
  2  7  1  0  0  0  0
  3  8  1  0  0  0  0
M  CHG  1   1   1
M  END
